Version 4.1
SHEET 1 1564 680
WIRE 336 -144 176 -144
WIRE 176 -32 176 -144
WIRE 208 -32 176 -32
WIRE 176 -16 176 -32
WIRE 208 112 208 -32
WIRE -64 176 -144 176
WIRE 48 176 16 176
WIRE 160 176 112 176
WIRE 208 240 208 208
WIRE 320 240 320 192
WIRE 320 240 208 240
WIRE 176 256 176 64
WIRE 208 272 208 240
WIRE 272 272 208 272
WIRE 384 272 384 192
FLAG -144 256 0
FLAG 336 -64 0
FLAG 176 336 0
FLAG 272 352 0
FLAG 384 352 0
SYMBOL njf 160 112 R0
SYMATTR InstName J1
SYMATTR Value J201_CUSTOM
SYMBOL res 32 160 R90
WINDOW 0 0 56 VBottom 2
WINDOW 3 32 56 VTop 2
SYMATTR InstName R1
SYMATTR Value 15k
SYMBOL res 192 352 R180
WINDOW 0 36 76 Left 2
WINDOW 3 36 40 Left 2
SYMATTR InstName R2
SYMATTR Value 470k
SYMBOL res 192 80 R180
WINDOW 0 36 76 Left 2
WINDOW 3 36 40 Left 2
SYMATTR InstName R3
SYMATTR Value 470k
SYMBOL res 288 368 R180
WINDOW 0 36 76 Left 2
WINDOW 3 36 40 Left 2
SYMATTR InstName R4
SYMATTR Value 2.2k
SYMBOL cap 112 160 R90
WINDOW 0 0 32 VBottom 2
WINDOW 3 32 32 VTop 2
SYMATTR InstName C1
SYMATTR Value 0.1µ
SYMBOL cap 384 176 R90
WINDOW 0 0 32 VBottom 2
WINDOW 3 32 32 VTop 2
SYMATTR InstName C2
SYMATTR Value 10µ
SYMBOL voltage -144 160 R0
WINDOW 123 0 0 Left 0
WINDOW 39 0 0 Left 0
SYMATTR InstName V1
SYMATTR Value SINE(0 0.1 1k)
SYMBOL voltage 336 -160 R0
WINDOW 123 0 0 Left 0
WINDOW 39 0 0 Left 0
SYMATTR InstName V2
SYMATTR Value 5
SYMBOL res 368 256 R0
SYMATTR InstName R5
SYMATTR Value 15k
TEXT 232 96 Left 2 !.model J201_CUSTOM NJF(Beta=1.465m Betatce=-.5 Rd=1 Rs=1 Lambda=6.927m Vto=-1.0 Is=33.57f Cgd=1.6p)
TEXT -168 48 Left 2 !.tran 10m
